/*--------------------------------*- C++ -*----------------------------------*\
| =========                 |                                                 |
| \\      /  F ield         | OpenFOAM: The Open Source CFD Toolbox           |
|  \\    /   O peration     | Version:  plus                                  |
|   \\  /    A nd           | Web:      www.OpenFOAM.com                      |
|    \\/     M anipulation  |                                                 |
\*---------------------------------------------------------------------------*/
FoamFile
{
    version     2.0;
    format      ascii;
    class       volScalarField;
    object      k;
}
// * * * * * * * * * * * * * * * * * * * * * * * * * * * * * * * * * * * * * //

dimensions      [0 2 -2 0 0 0 0];

internalField   uniform 0e-5;

boundaryField
boundaryField
{
    inlet
    {
        type            zeroGradient;
    }

    outlet
    {
        type            zeroGradient;
    }

    leakyWallA
    {
        type            zeroGradient;
    }

    leakyWallB
    {
        type            zeroGradient;
    }
    
    leakyWallC
    {
        type            zeroGradient;
    }
    
    leakyWallD
    {
        type            zeroGradient;
    }    
        
    deadWall
    {
        type            zeroGradient;
    }
   

    frontAndBack
    {
        type            empty;
    }
}


// ************************************************************************* //
